LAMMPS (9 Oct 2020)

# 1. Инициализация
units metal
dimension 3
boundary p p p
atom_style atomic

# 2. Создание атомов и задания начальной структуры меди (ГЦК)
lattice fcc 3.615
Lattice spacing in x,y,z = 3.6150000 3.6150000 3.6150000
region box block 0 10 0 10 0 10
create_box 1 box
Created orthogonal box = (0.0000000 0.0000000 0.0000000) to (36.150000 36.150000 36.150000)
create_atoms 1 box
Created 4000 atoms

# 3. Задание взаимодействий через потенциал Эмбеди
pair_style eam
pair_coeff * * Cu_u3.eam
Reading eam potential file Cu_u3.eam with DATE: 2007-06-11

# 4. Определение вычислений и условий
mass 1 63.546
velocity all create 300.0 12345 mom yes rot yes

# 5. Управление шагами симуляции и вывод результатов
thermo 100
thermo_style custom step temp pe ke etotal press
dump 1 all atom 100 dump.cube_stretch2
dump_modify 1 scale yes

# 6. Фиксация границ и растяжение куба по оси z
fix 1 all nvt temp 300.0 300.0 100.0
fix 2 all deform 1 z erate 0.001 units box

# 7. Запуск симуляции
run 5000
  update every 1 steps, delay 10 steps, check yes
Step Temp PotEng KinEng TotEng Press
0          300       -14160     155.0734   -14004.927    3506.1302
Averages over the last 26 of 51 rows, steps 2500 to 5000:
Temp PotEng KinEng TotEng Press
149.716 -14082.8 77.39 -14005.4 4676.01
Loop time of 12.7405 on 1 procs for 5000 steps with 4000 atoms
